AOM
  Mrv0541 02231217152D          

 27 30  0  0  0  0            999 V2000
   -1.5038    0.6043    0.0000 C   0  0  0  0  0  0  0  0  0  0  0  0
   -0.9720   -0.0264    0.0000 C   0  0  1  0  0  0  0  0  0  0  0  0
    0.1205    0.8947    0.0000 C   0  0  0  0  0  0  0  0  0  0  0  0
    0.9326    1.0400    0.0000 C   0  0  0  0  0  0  0  0  0  0  0  0
    1.4644    0.4092    0.0000 C   0  0  1  0  0  0  0  0  0  0  0  0
    1.1841   -0.3667    0.0000 C   0  0  1  0  0  0  0  0  0  0  0  0
    1.8354   -0.8730    0.0000 C   0  0  0  0  0  0  0  0  0  0  0  0
    2.5183   -0.4100    0.0000 C   0  0  0  0  0  0  0  0  0  0  0  0
    2.2890    0.3824    0.0000 C   0  0  2  0  0  0  0  0  0  0  0  0
    1.8243    1.1516    0.0000 C   0  0  0  0  0  0  0  0  0  0  0  0
   -0.6917    0.7495    0.0000 C   0  0  0  0  0  0  0  0  0  0  0  0
   -2.3159    0.4591    0.0000 C   0  0  0  0  0  0  0  0  0  0  0  0
   -2.5962   -0.3168    0.0000 C   0  0  1  0  0  0  0  0  0  0  0  0
   -2.0644   -0.9475    0.0000 C   0  0  0  0  0  0  0  0  0  0  0  0
   -1.2523   -0.8023    0.0000 C   0  0  2  0  0  0  0  0  0  0  0  0
   -0.7204   -1.4330    0.0000 C   0  0  0  0  0  0  0  0  0  0  0  0
    0.0917   -1.2878    0.0000 C   0  0  0  0  0  0  0  0  0  0  0  0
    0.3720   -0.5119    0.0000 C   0  0  2  0  0  0  0  0  0  0  0  0
   -0.1598    0.1188    0.0000 C   0  0  1  0  0  0  0  0  0  0  0  0
   -3.4083   -0.4620    0.0000 O   0  0  0  0  0  0  0  0  0  0  0  0
    2.7953    1.0338    0.0000 O   0  0  0  0  0  0  0  0  0  0  0  0
    1.0442   -0.9336    0.0000 H   0  0  0  0  0  0  0  0  0  0  0  0
    2.0409    0.9111    0.0000 H   0  0  0  0  0  0  0  0  0  0  0  0
   -2.9726    0.1296    0.0000 H   0  0  0  0  0  0  0  0  0  0  0  0
   -1.4506   -1.3515    0.0000 H   0  0  0  0  0  0  0  0  0  0  0  0
    0.7484   -0.9583    0.0000 H   0  0  0  0  0  0  0  0  0  0  0  0
   -0.5363    0.5652    0.0000 H   0  0  0  0  0  0  0  0  0  0  0  0
  1  2  1  0  0  0  0
  1 12  1  0  0  0  0
  2 11  1  1  0  0  0
  2 15  1  0  0  0  0
  2 19  1  0  0  0  0
  3  4  1  0  0  0  0
  3 19  1  0  0  0  0
  4  5  1  0  0  0  0
  5  6  1  0  0  0  0
  5  9  1  0  0  0  0
  5 10  1  1  0  0  0
  6  7  1  0  0  0  0
  6 18  1  0  0  0  0
  6 22  1  6  0  0  0
  7  8  1  0  0  0  0
  8  9  1  0  0  0  0
  9 21  1  1  0  0  0
  9 23  1  6  0  0  0
 12 13  1  0  0  0  0
 13 14  1  0  0  0  0
 13 20  1  1  0  0  0
 13 24  1  6  0  0  0
 14 15  1  0  0  0  0
 15 16  1  0  0  0  0
 15 25  1  6  0  0  0
 16 17  1  0  0  0  0
 17 18  1  0  0  0  0
 18 19  1  0  0  0  0
 18 26  1  1  0  0  0
 19 27  1  6  0  0  0
M  END
> <DATABASE_ID>
HMDB00493

> <DATABASE_NAME>
hmdb

> <SMILES>
[H][C@]1(O)CC[C@@]2([H])[C@]3([H])CC[C@@]4([H])C[C@@]([H])(O)CC[C@]4(C)[C@@]3([H])CC[C@]12C

> <INCHI_IDENTIFIER>
InChI=1S/C19H32O2/c1-18-9-7-13(20)11-12(18)3-4-14-15-5-6-17(21)19(15,2)10-8-16(14)18/h12-17,20-21H,3-11H2,1-2H3/t12-,13-,14-,15-,16-,17-,18-,19-/m0/s1

> <INCHI_KEY>
CBMYJHIOYJEBSB-YSZCXEEOSA-N

> <FORMULA>
C19H32O2

> <MOLECULAR_WEIGHT>
292.4562

> <EXACT_MASS>
292.240230268

> <JCHEM_ACCEPTOR_COUNT>
2

> <JCHEM_AVERAGE_POLARIZABILITY>
35.52269188614459

> <JCHEM_BIOAVAILABILITY>
1

> <JCHEM_DONOR_COUNT>
2

> <JCHEM_FORMAL_CHARGE>
0

> <JCHEM_GHOSE_FILTER>
1

> <JCHEM_IUPAC>
(1S,2S,5S,7S,10R,11S,14S,15S)-2,15-dimethyltetracyclo[8.7.0.0²,⁷.0¹¹,¹⁵]heptadecane-5,14-diol

> <ALOGPS_LOGP>
3.56

> <JCHEM_LOGP>
3.2037568309999997

> <ALOGPS_LOGS>
-4.18

> <JCHEM_MDDR_LIKE_RULE>
0

> <JCHEM_NUMBER_OF_RINGS>
4

> <JCHEM_PHYSIOLOGICAL_CHARGE>
0

> <JCHEM_PKA>
19.377705356554483

> <JCHEM_PKA_STRONGEST_ACIDIC>
18.2963963211217

> <JCHEM_PKA_STRONGEST_BASIC>
-0.7580100340749988

> <JCHEM_POLAR_SURFACE_AREA>
40.46

> <JCHEM_REFRACTIVITY>
84.63119999999999

> <JCHEM_ROTATABLE_BOND_COUNT>
0

> <JCHEM_RULE_OF_FIVE>
1

> <ALOGPS_SOLUBILITY>
1.93e-02 g/l

> <JCHEM_TRADITIONAL_IUPAC>
5-α-androstane-3-β,17β-diol

> <JCHEM_VEBER_RULE>
0

> <HMDB_ID>
HMDB00493

> <GENERIC_NAME>
5a-Androstane-3b,17b-diol

> <SYNONYMS>
(3beta,5alpha,17beta)-Androstane-3,17-diol; 3b,17b-Androstanediol; 3b,17b-Dihydroxy-5a-androstane; 5alpha-Androstan-3beta,17beta-diol; 5alpha-Androstane-3beta,17beta-diol

$$$$
