DL-Homocystine.mol
  Mrv0541 02231218362D          

 16 15  0  0  0  0            999 V2000
    2.8875   -0.7145    0.0000 C   0  0  0  0  0  0  0  0  0  0  0  0
    1.6500    0.0000    0.0000 N   0  0  0  0  0  0  0  0  0  0  0  0
    2.0625   -0.7145    0.0000 C   0  0  0  0  0  0  0  0  0  0  0  0
    1.6500   -1.4289    0.0000 C   0  0  0  0  0  0  0  0  0  0  0  0
    0.8250   -1.4289    0.0000 C   0  0  0  0  0  0  0  0  0  0  0  0
    0.4125   -0.7145    0.0000 S   0  0  0  0  0  0  0  0  0  0  0  0
   -0.4125   -0.7145    0.0000 S   0  0  0  0  0  0  0  0  0  0  0  0
   -0.8250    0.0000    0.0000 C   0  0  0  0  0  0  0  0  0  0  0  0
   -1.6500    0.0000    0.0000 C   0  0  0  0  0  0  0  0  0  0  0  0
   -2.0625    0.7145    0.0000 C   0  0  0  0  0  0  0  0  0  0  0  0
   -1.6500    1.4289    0.0000 N   0  0  0  0  0  0  0  0  0  0  0  0
   -2.8875    0.7145    0.0000 C   0  0  0  0  0  0  0  0  0  0  0  0
    3.3000    0.0000    0.0000 O   0  0  0  0  0  0  0  0  0  0  0  0
    3.3000   -1.4289    0.0000 O   0  0  0  0  0  0  0  0  0  0  0  0
   -3.3000    0.0000    0.0000 O   0  0  0  0  0  0  0  0  0  0  0  0
   -3.3000    1.4289    0.0000 O   0  0  0  0  0  0  0  0  0  0  0  0
  2  3  1  0  0  0  0
  1  3  1  0  0  0  0
  3  4  1  0  0  0  0
  4  5  1  0  0  0  0
  5  6  1  0  0  0  0
  6  7  1  0  0  0  0
  7  8  1  0  0  0  0
  8  9  1  0  0  0  0
  9 10  1  0  0  0  0
 10 11  1  0  0  0  0
 10 12  1  0  0  0  0
  1 13  2  0  0  0  0
  1 14  1  0  0  0  0
 12 15  2  0  0  0  0
 12 16  1  0  0  0  0
M  END
> <DATABASE_ID>
HMDB00575

> <DATABASE_NAME>
hmdb

> <SMILES>
NC(CCSSCCC(N)C(O)=O)C(O)=O

> <INCHI_IDENTIFIER>
InChI=1S/C8H16N2O4S2/c9-5(7(11)12)1-3-15-16-4-2-6(10)8(13)14/h5-6H,1-4,9-10H2,(H,11,12)(H,13,14)

> <INCHI_KEY>
ZTVZLYBCZNMWCF-UHFFFAOYSA-N

> <FORMULA>
C8H16N2O4S2

> <MOLECULAR_WEIGHT>
268.354

> <EXACT_MASS>
268.05514839

> <JCHEM_ACCEPTOR_COUNT>
6

> <JCHEM_AVERAGE_POLARIZABILITY>
26.91822397637079

> <JCHEM_BIOAVAILABILITY>
1

> <JCHEM_DONOR_COUNT>
4

> <JCHEM_FORMAL_CHARGE>
0

> <JCHEM_GHOSE_FILTER>
0

> <JCHEM_IUPAC>
2-amino-4-[(3-amino-3-carboxypropyl)disulfanyl]butanoic acid

> <ALOGPS_LOGP>
-4.15

> <JCHEM_LOGP>
-5.3204841436762065

> <ALOGPS_LOGS>
-1.78

> <JCHEM_MDDR_LIKE_RULE>
0

> <JCHEM_NUMBER_OF_RINGS>
0

> <JCHEM_PHYSIOLOGICAL_CHARGE>
0

> <JCHEM_PKA>
2.403047490886738

> <JCHEM_PKA_STRONGEST_ACIDIC>
1.8009555846997536

> <JCHEM_PKA_STRONGEST_BASIC>
9.802441672007912

> <JCHEM_POLAR_SURFACE_AREA>
126.64

> <JCHEM_REFRACTIVITY>
64.38180000000001

> <JCHEM_ROTATABLE_BOND_COUNT>
9

> <JCHEM_RULE_OF_FIVE>
1

> <ALOGPS_SOLUBILITY>
4.50e+00 g/l

> <JCHEM_TRADITIONAL_IUPAC>
homocystine

> <JCHEM_VEBER_RULE>
0

> <HMDB_ID>
HMDB00575

> <GENERIC_NAME>
DL-Homocystine

> <SYNONYMS>
4,4'-Dithiobis; DL-Homocystine; Homocystine

$$$$
