
  Mrv0541 04191212162D          

 22 22  0  0  0  0            999 V2000
    0.0000    0.8250    0.0000 C   0  0  0  0  0  0  0  0  0  0  0  0
   -0.7145    0.4125    0.0000 C   0  0  0  0  0  0  0  0  0  0  0  0
    0.7145    0.4125    0.0000 C   0  0  0  0  0  0  0  0  0  0  0  0
    0.7145   -0.4125    0.0000 C   0  0  0  0  0  0  0  0  0  0  0  0
    0.0000   -0.8250    0.0000 C   0  0  0  0  0  0  0  0  0  0  0  0
   -0.7145   -0.4125    0.0000 C   0  0  0  0  0  0  0  0  0  0  0  0
    6.4302    0.4125    0.0000 C   0  0  0  0  0  0  0  0  0  0  0  0
    5.7158    0.8250    0.0000 C   0  0  0  0  0  0  0  0  0  0  0  0
    5.0013    0.4125    0.0000 C   0  0  0  0  0  0  0  0  0  0  0  0
    4.2868    0.8250    0.0000 C   0  0  0  0  0  0  0  0  0  0  0  0
    3.5724    0.4125    0.0000 C   0  0  0  0  0  0  0  0  0  0  0  0
    2.8579    0.8250    0.0000 C   0  0  0  0  0  0  0  0  0  0  0  0
    1.4289    0.8250    0.0000 C   0  0  0  0  0  0  0  0  0  0  0  0
    5.7158    1.6500    0.0000 C   0  0  0  0  0  0  0  0  0  0  0  0
    2.8579    1.6500    0.0000 C   0  0  0  0  0  0  0  0  0  0  0  0
    0.4125    1.5395    0.0000 C   0  0  0  0  0  0  0  0  0  0  0  0
   -0.4125    1.5395    0.0000 C   0  0  0  0  0  0  0  0  0  0  0  0
    2.1434    0.4125    0.0000 C   0  0  0  0  0  0  0  0  0  0  0  0
    1.4289   -0.8250    0.0000 C   0  0  0  0  0  0  0  0  0  0  0  0
    6.4302   -0.4125    0.0000 C   0  0  0  0  0  0  0  0  0  0  0  0
    5.7157   -0.8250    0.0000 O   0  0  0  0  0  0  0  0  0  0  0  0
    7.1447   -0.8250    0.0000 O   0  0  0  0  0  0  0  0  0  0  0  0
  1 16  1  0  0  0  0
  1 17  1  0  0  0  0
  1  2  1  0  0  0  0
  1  3  1  0  0  0  0
  3 13  1  0  0  0  0
  4  3  2  0  0  0  0
 19  4  1  0  0  0  0
  5  4  1  0  0  0  0
  6  5  1  0  0  0  0
  2  6  1  0  0  0  0
  8  7  2  0  0  0  0
  9  8  1  0  0  0  0
 14  8  1  0  0  0  0
 10  9  2  0  0  0  0
 11 10  1  0  0  0  0
 12 11  2  0  0  0  0
 18 12  1  0  0  0  0
 15 12  1  0  0  0  0
 13 18  2  0  0  0  0
  7 20  1  0  0  0  0
 20 21  2  0  0  0  0
 20 22  1  0  0  0  0
M  END
> <DATABASE_ID>
HMDB06219

> <DATABASE_NAME>
hmdb

> <SMILES>
C\C(\C=C\C1=C(C)CCCC1(C)C)=C/C=C/C(/C)=C\C(O)=O

> <INCHI_IDENTIFIER>
InChI=1S/C20H28O2/c1-15(8-6-9-16(2)14-19(21)22)11-12-18-17(3)10-7-13-20(18,4)5/h6,8-9,11-12,14H,7,10,13H2,1-5H3,(H,21,22)/b9-6+,12-11+,15-8+,16-14-

> <INCHI_KEY>
SHGAZHPCJJPHSC-XFYACQKRSA-N

> <FORMULA>
C20H28O2

> <MOLECULAR_WEIGHT>
300.4351

> <EXACT_MASS>
300.20893014

> <JCHEM_ACCEPTOR_COUNT>
2

> <JCHEM_AVERAGE_POLARIZABILITY>
36.147962995987214

> <JCHEM_BIOAVAILABILITY>
1

> <JCHEM_DONOR_COUNT>
1

> <JCHEM_FORMAL_CHARGE>
0

> <JCHEM_GHOSE_FILTER>
1

> <JCHEM_IUPAC>
(2Z,4E,6E,8E)-3,7-dimethyl-9-(2,6,6-trimethylcyclohex-1-en-1-yl)nona-2,4,6,8-tetraenoic acid

> <ALOGPS_LOGP>
5.66

> <JCHEM_LOGP>
5.014367711

> <ALOGPS_LOGS>
-4.80

> <JCHEM_MDDR_LIKE_RULE>
0

> <JCHEM_NUMBER_OF_RINGS>
1

> <JCHEM_PHYSIOLOGICAL_CHARGE>
-1

> <JCHEM_PKA_STRONGEST_ACIDIC>
4.996647744997455

> <JCHEM_POLAR_SURFACE_AREA>
37.3

> <JCHEM_REFRACTIVITY>
97.79079999999999

> <JCHEM_ROTATABLE_BOND_COUNT>
5

> <JCHEM_RULE_OF_FIVE>
0

> <ALOGPS_SOLUBILITY>
4.77e-03 g/l

> <JCHEM_TRADITIONAL_IUPAC>
isotretinoin

> <JCHEM_VEBER_RULE>
1

> <HMDB_ID>
HMDB06219

> <GENERIC_NAME>
13-cis-Retinoic acid

> <SYNONYMS>
(13-cis)-Retinoate; (13-cis)-Retinoic acid; 13-cis-Retinoate; 13-cis-Retinoic acid; 13-cis-Vitamin A acid; Accutane; Accutane (TN); Amnesteem; CIP-Isotretinoin; cis-Retinoate; cis-Retinoic acid; Claravis; Isotretinoin; Isotretinoin (USP); Isotretinoin [USAN:BAN:INN]; Isotretinoine [INN-French]; Isotretinoino [INN-Spanish]; Isotretinoinum [INN-Latin]; Isotrex; Neovitamin A acid; Retinoate; Retinoic acid; Roaccutan; Roaccutane; Roacutan; Sotret; Teriosal

$$$$
